*SPEF "IEEE 1481-1998"
*VERSION "0.0"
*DESIGN_FLOW "NETLIST_TYPE_VERILOG"
*DIVIDER /
*DELIMITER :
*BUS_DELIMITER []
*T_UNIT 1 PS
*C_UNIT 1 PF
*R_UNIT 1 OHM
*D_NET state<0> 0.285223
*CONN
*I DFFSR_1:Q O
*I INVX4_1:A I
*I OAI22X1_1:C I
*I OAI21X1_21:C I
*I NAND3X1_2:A I
*I OAI21X1_14:C I
*I OAI22X1_2:C I
*I OAI21X1_29:A I
*I NAND3X1_7:A I
*I OAI21X1_26:C I
*I OAI21X1_16:A I
*I AOI21X1_12:C I
*CAP
1 DFFSR_1:Q 0.000000
2 state<0>_n1 0.000000
3 state<0>_n2 0.000067
4 state<0>_n3 0.000066
5 INVX4_1:A 0.054879
6 state<0>_n4 0.000155
7 state<0>_n5 0.000060
8 state<0>_n6 0.000020
9 state<0>_n7 0.000000
10 OAI22X1_1:C 0.026839
11 state<0>_n8 0.000102
12 OAI21X1_21:C 0.018010
13 state<0>_n9 0.000245
14 state<0>_n10 0.000020
15 NAND3X1_2:A 0.022251
16 state<0>_n11 0.000163
17 state<0>_n12 0.000129
18 OAI21X1_14:C 0.018010
19 state<0>_n13 0.000469
20 state<0>_n14 0.000020
21 OAI22X1_2:C 0.026839
22 state<0>_n15 0.000034
23 OAI21X1_29:A 0.026531
24 state<0>_n16 0.000169
25 NAND3X1_7:A 0.022251
26 state<0>_n17 0.000058
27 OAI21X1_26:C 0.018010
28 state<0>_n18 0.000259
29 OAI21X1_16:A 0.026531
30 state<0>_n19 0.000265
31 AOI21X1_12:C 0.022770
*RES
1 DFFSR_1:Q state<0>_n1 0.000000
2 state<0>_n1 state<0>_n2 1.866670
3 state<0>_n2 state<0>_n3 0.606667
4 state<0>_n2 state<0>_n4 4.293330
5 state<0>_n4 state<0>_n5 1.680000
6 state<0>_n5 state<0>_n6 0.560000
7 state<0>_n6 state<0>_n7 0.000000
8 state<0>_n6 state<0>_n8 1.820000
9 state<0>_n5 state<0>_n9 2.800000
10 state<0>_n9 state<0>_n10 0.233333
11 state<0>_n10 state<0>_n11 1.866670
12 state<0>_n11 state<0>_n12 1.913330
13 state<0>_n11 state<0>_n13 5.366670
14 state<0>_n13 state<0>_n14 0.233333
15 state<0>_n14 state<0>_n15 0.933333
16 state<0>_n14 state<0>_n16 3.686670
17 state<0>_n16 state<0>_n17 0.373333
18 state<0>_n4 state<0>_n18 2.333330
19 state<0>_n1 state<0>_n19 2.960000
*END
*D_NET _111_ 0.309377
*CONN
*I NAND3X1_1:Y O
*I MUX2X1_2:S I
*I MUX2X1_5:S I
*I MUX2X1_1:S I
*I NOR2X1_8:B I
*I AOI21X1_2:B I
*I MUX2X1_3:S I
*I MUX2X1_4:S I
*I NOR2X1_7:B I
*I AOI21X1_1:B I
*I MUX2X1_7:S I
*I MUX2X1_6:S I
*CAP
1 NAND3X1_1:Y 0.000000
2 _111__n1 0.000216
3 _111__n2 0.000061
4 MUX2X1_2:S 0.029579
5 _111__n3 0.000020
6 _111__n4 0.000176
7 _111__n5 0.000054
8 _111__n6 0.000102
9 MUX2X1_5:S 0.029579
10 _111__n7 0.000298
11 MUX2X1_1:S 0.029579
12 _111__n8 0.000265
13 _111__n9 0.000041
14 NOR2X1_8:B 0.022753
15 _111__n10 0.000040
16 AOI21X1_2:B 0.026863
17 _111__n11 0.000331
18 _111__n12 0.000054
19 MUX2X1_3:S 0.029579
20 _111__n13 0.000182
21 _111__n14 0.000116
22 _111__n15 0.000041
23 MUX2X1_4:S 0.029579
24 _111__n16 0.000210
25 _111__n17 0.000160
26 NOR2X1_7:B 0.022753
27 _111__n18 0.000129
28 AOI21X1_1:B 0.026863
29 _111__n19 0.000208
30 _111__n20 0.000082
31 MUX2X1_7:S 0.029579
32 _111__n21 0.000303
33 MUX2X1_6:S 0.029579
*RES
1 NAND3X1_1:Y _111__n1 5.320000
2 _111__n1 _111__n2 0.700000
3 _111__n1 _111__n3 0.233333
4 _111__n3 _111__n4 2.893330
5 _111__n4 _111__n5 1.166670
6 _111__n5 _111__n6 1.166670
7 _111__n5 _111__n7 5.273330
8 _111__n4 _111__n8 3.033330
9 _111__n8 _111__n9 0.466667
10 _111__n8 _111__n10 1.120000
11 _111__n3 _111__n11 3.000000
12 _111__n11 _111__n12 0.840000
13 _111__n11 _111__n13 1.266670
14 _111__n13 _111__n14 2.300000
15 _111__n14 _111__n15 0.466667
16 _111__n14 _111__n16 4.153330
17 _111__n16 _111__n17 1.540000
18 _111__n16 _111__n18 2.240000
19 _111__n13 _111__n19 5.786670
20 _111__n19 _111__n20 0.933333
21 _111__n19 _111__n21 7.093330
*END
*D_NET clock_bF$buf4 0.095989
*CONN
*I BUFX2_1:Y O
*I DFFSR_9:CLK I
*I DFFSR_26:CLK I
*I DFFSR_12:CLK I
*I DFFSR_32:CLK I
*I DFFSR_8:CLK I
*I DFFSR_6:CLK I
*I DFFSR_2:CLK I
*CAP
1 BUFX2_1:Y 0.000000
2 clock_bF$buf4_n1 0.000070
3 clock_bF$buf4_n2 0.000040
4 clock_bF$buf4_n3 0.000163
5 DFFSR_9:CLK 0.013447
6 clock_bF$buf4_n4 0.000114
7 clock_bF$buf4_n5 0.000184
8 DFFSR_26:CLK 0.013447
9 clock_bF$buf4_n6 0.000081
10 clock_bF$buf4_n7 0.000177
11 clock_bF$buf4_n8 0.000020
12 DFFSR_12:CLK 0.013447
13 clock_bF$buf4_n9 0.000175
14 DFFSR_32:CLK 0.013447
15 clock_bF$buf4_n10 0.000286
16 DFFSR_8:CLK 0.013447
17 clock_bF$buf4_n11 0.000074
18 clock_bF$buf4_n12 0.000265
19 DFFSR_6:CLK 0.013447
20 clock_bF$buf4_n13 0.000212
21 DFFSR_2:CLK 0.013447
*RES
1 BUFX2_1:Y clock_bF$buf4_n1 0.933333
2 clock_bF$buf4_n1 clock_bF$buf4_n2 1.120000
3 clock_bF$buf4_n2 clock_bF$buf4_n3 1.866670
4 clock_bF$buf4_n2 clock_bF$buf4_n4 3.173330
5 clock_bF$buf4_n4 clock_bF$buf4_n5 2.100000
6 clock_bF$buf4_n4 clock_bF$buf4_n6 2.240000
7 clock_bF$buf4_n6 clock_bF$buf4_n7 2.240000
8 clock_bF$buf4_n7 clock_bF$buf4_n8 0.233333
9 clock_bF$buf4_n8 clock_bF$buf4_n9 2.006670
10 clock_bF$buf4_n6 clock_bF$buf4_n10 3.266670
11 clock_bF$buf4_n1 clock_bF$buf4_n11 2.053330
12 clock_bF$buf4_n11 clock_bF$buf4_n12 3.033330
13 clock_bF$buf4_n11 clock_bF$buf4_n13 2.426670
*END
*D_NET clock_bF$buf3 0.096087
*CONN
*I BUFX2_2:Y O
*I DFFSR_5:CLK I
*I DFFSR_3:CLK I
*I DFFSR_15:CLK I
*I DFFSR_19:CLK I
*I DFFSR_18:CLK I
*I DFFSR_20:CLK I
*I DFFSR_21:CLK I
*CAP
1 BUFX2_2:Y 0.000000
2 clock_bF$buf3_n1 0.000102
3 clock_bF$buf3_n2 0.000163
4 DFFSR_5:CLK 0.013447
5 clock_bF$buf3_n3 0.000134
6 clock_bF$buf3_n4 0.000184
7 DFFSR_3:CLK 0.013447
8 clock_bF$buf3_n5 0.000177
9 clock_bF$buf3_n6 0.000122
10 DFFSR_15:CLK 0.013447
11 clock_bF$buf3_n7 0.000060
12 clock_bF$buf3_n8 0.000000
13 DFFSR_19:CLK 0.013447
14 clock_bF$buf3_n9 0.000337
15 clock_bF$buf3_n10 0.000000
16 DFFSR_18:CLK 0.013447
17 clock_bF$buf3_n11 0.000008
18 clock_bF$buf3_n12 0.000190
19 DFFSR_20:CLK 0.013447
20 clock_bF$buf3_n13 0.000481
21 DFFSR_21:CLK 0.013447
*RES
1 BUFX2_2:Y clock_bF$buf3_n1 1.820000
2 clock_bF$buf3_n1 clock_bF$buf3_n2 1.866670
3 clock_bF$buf3_n1 clock_bF$buf3_n3 3.733330
4 clock_bF$buf3_n3 clock_bF$buf3_n4 2.100000
5 clock_bF$buf3_n3 clock_bF$buf3_n5 2.240000
6 clock_bF$buf3_n5 clock_bF$buf3_n6 1.400000
7 clock_bF$buf3_n5 clock_bF$buf3_n7 1.680000
8 clock_bF$buf3_n7 clock_bF$buf3_n8 0.000000
9 clock_bF$buf3_n8 clock_bF$buf3_n9 7.373330
10 clock_bF$buf3_n9 clock_bF$buf3_n10 0.000000
11 clock_bF$buf3_n10 clock_bF$buf3_n11 0.233333
12 clock_bF$buf3_n11 clock_bF$buf3_n12 3.266670
13 clock_bF$buf3_n10 clock_bF$buf3_n13 5.506670
*END
*D_NET _56__bF$buf4 0.252415
*CONN
*I BUFX4_1:Y O
*I DFFSR_30:R I
*I DFFSR_14:R I
*I DFFSR_13:R I
*I DFFSR_22:R I
*I DFFSR_16:R I
*I DFFSR_17:R I
*I DFFSR_23:R I
*CAP
1 BUFX4_1:Y 0.000000
2 _56__bF$buf4_n1 0.000710
3 DFFSR_30:R 0.035781
4 _56__bF$buf4_n2 0.000245
5 _56__bF$buf4_n3 0.000020
6 DFFSR_14:R 0.035781
7 _56__bF$buf4_n4 0.000094
8 DFFSR_13:R 0.035781
9 _56__bF$buf4_n5 0.000245
10 _56__bF$buf4_n6 0.000020
11 DFFSR_22:R 0.035781
12 _56__bF$buf4_n7 0.000251
13 DFFSR_16:R 0.035781
14 _56__bF$buf4_n8 0.000115
15 DFFSR_17:R 0.035781
16 _56__bF$buf4_n9 0.000245
17 DFFSR_23:R 0.035781
*RES
1 BUFX4_1:Y _56__bF$buf4_n1 8.493330
2 _56__bF$buf4_n1 _56__bF$buf4_n2 2.800000
3 _56__bF$buf4_n2 _56__bF$buf4_n3 0.233333
4 _56__bF$buf4_n3 _56__bF$buf4_n4 2.613330
5 _56__bF$buf4_n4 _56__bF$buf4_n5 2.800000
6 _56__bF$buf4_n5 _56__bF$buf4_n6 0.233333
7 _56__bF$buf4_n6 _56__bF$buf4_n7 3.313330
8 _56__bF$buf4_n7 _56__bF$buf4_n8 1.866670
9 _56__bF$buf4_n6 _56__bF$buf4_n9 2.800000
*END
*D_NET _56__bF$buf3 0.252243
*CONN
*I BUFX4_2:Y O
*I DFFSR_8:R I
*I DFFSR_25:R I
*I DFFSR_10:R I
*I DFFSR_28:R I
*I DFFSR_7:R I
*I DFFSR_29:R I
*I DFFSR_11:R I
*CAP
1 BUFX4_2:Y 0.000000
2 _56__bF$buf3_n1 0.000246
3 DFFSR_8:R 0.035781
4 _56__bF$buf3_n2 0.000265
5 _56__bF$buf3_n3 0.000033
6 DFFSR_25:R 0.035781
7 _56__bF$buf3_n4 0.000251
8 _56__bF$buf3_n5 0.000020
9 DFFSR_10:R 0.035781
10 _56__bF$buf3_n6 0.000265
11 DFFSR_28:R 0.035781
12 _56__bF$buf3_n7 0.000204
13 DFFSR_7:R 0.035781
14 _56__bF$buf3_n8 0.000428
15 _56__bF$buf3_n9 0.000020
16 DFFSR_29:R 0.035781
17 _56__bF$buf3_n10 0.000040
18 DFFSR_11:R 0.035781
*RES
1 BUFX4_2:Y _56__bF$buf3_n1 4.946670
2 _56__bF$buf3_n1 _56__bF$buf3_n2 3.033330
3 _56__bF$buf3_n2 _56__bF$buf3_n3 0.373333
4 _56__bF$buf3_n2 _56__bF$buf3_n4 3.313330
5 _56__bF$buf3_n4 _56__bF$buf3_n5 0.233333
6 _56__bF$buf3_n5 _56__bF$buf3_n6 3.360000
7 _56__bF$buf3_n6 _56__bF$buf3_n7 2.333330
8 _56__bF$buf3_n6 _56__bF$buf3_n8 4.900000
9 _56__bF$buf3_n8 _56__bF$buf3_n9 0.233333
10 _56__bF$buf3_n9 _56__bF$buf3_n10 1.120000
*END
*D_NET clock_bF$buf2 0.082231
*CONN
*I BUFX2_3:Y O
*I DFFSR_14:CLK I
*I DFFSR_13:CLK I
*I DFFSR_22:CLK I
*I DFFSR_16:CLK I
*I DFFSR_17:CLK I
*I DFFSR_23:CLK I
*CAP
1 BUFX2_3:Y 0.000000
2 clock_bF$buf2_n1 0.000243
3 clock_bF$buf2_n2 0.000102
4 DFFSR_14:CLK 0.013447
5 clock_bF$buf2_n3 0.000175
6 clock_bF$buf2_n4 0.000102
7 DFFSR_13:CLK 0.013447
8 clock_bF$buf2_n5 0.000094
9 clock_bF$buf2_n6 0.000245
10 clock_bF$buf2_n7 0.000020
11 DFFSR_22:CLK 0.013447
12 clock_bF$buf2_n8 0.000108
13 clock_bF$buf2_n9 0.000061
14 DFFSR_16:CLK 0.013447
15 clock_bF$buf2_n10 0.000209
16 DFFSR_17:CLK 0.013447
17 clock_bF$buf2_n11 0.000189
18 DFFSR_23:CLK 0.013447
*RES
1 BUFX2_3:Y clock_bF$buf2_n1 4.760000
2 clock_bF$buf2_n1 clock_bF$buf2_n2 1.166670
3 clock_bF$buf2_n1 clock_bF$buf2_n3 4.853330
4 clock_bF$buf2_n3 clock_bF$buf2_n4 1.166670
5 clock_bF$buf2_n3 clock_bF$buf2_n5 2.613330
6 clock_bF$buf2_n5 clock_bF$buf2_n6 2.800000
7 clock_bF$buf2_n6 clock_bF$buf2_n7 0.233333
8 clock_bF$buf2_n7 clock_bF$buf2_n8 1.680000
9 clock_bF$buf2_n8 clock_bF$buf2_n9 0.700000
10 clock_bF$buf2_n8 clock_bF$buf2_n10 4.806670
11 clock_bF$buf2_n5 clock_bF$buf2_n11 3.593330
*END
*D_NET clock_bF$buf1 0.082337
*CONN
*I BUFX2_4:Y O
*I DFFSR_31:CLK I
*I DFFSR_30:CLK I
*I DFFSR_27:CLK I
*I DFFSR_4:CLK I
*I DFFSR_1:CLK I
*I DFFSR_24:CLK I
*CAP
1 BUFX2_4:Y 0.000000
2 clock_bF$buf1_n1 0.000169
3 clock_bF$buf1_n2 0.000108
4 clock_bF$buf1_n3 0.000041
5 DFFSR_31:CLK 0.013447
6 clock_bF$buf1_n4 0.000156
7 DFFSR_30:CLK 0.013447
8 clock_bF$buf1_n5 0.000347
9 clock_bF$buf1_n6 0.000020
10 DFFSR_27:CLK 0.013447
11 clock_bF$buf1_n7 0.000049
12 clock_bF$buf1_n8 0.000210
13 clock_bF$buf1_n9 0.000020
14 DFFSR_4:CLK 0.013447
15 clock_bF$buf1_n10 0.000326
16 DFFSR_1:CLK 0.013447
17 clock_bF$buf1_n11 0.000210
18 DFFSR_24:CLK 0.013447
*RES
1 BUFX2_4:Y clock_bF$buf1_n1 3.360000
2 clock_bF$buf1_n1 clock_bF$buf1_n2 2.660000
3 clock_bF$buf1_n2 clock_bF$buf1_n3 0.466667
4 clock_bF$buf1_n2 clock_bF$buf1_n4 2.333330
5 clock_bF$buf1_n1 clock_bF$buf1_n5 3.966670
6 clock_bF$buf1_n5 clock_bF$buf1_n6 0.233333
7 clock_bF$buf1_n6 clock_bF$buf1_n7 0.700000
8 clock_bF$buf1_n7 clock_bF$buf1_n8 4.153330
9 clock_bF$buf1_n8 clock_bF$buf1_n9 0.233333
10 clock_bF$buf1_n9 clock_bF$buf1_n10 3.733330
11 clock_bF$buf1_n7 clock_bF$buf1_n11 4.153330
*END
*D_NET clock_bF$buf0 0.082121
*CONN
*I BUFX2_5:Y O
*I DFFSR_29:CLK I
*I DFFSR_11:CLK I
*I DFFSR_7:CLK I
*I DFFSR_25:CLK I
*I DFFSR_10:CLK I
*I DFFSR_28:CLK I
*CAP
1 BUFX2_5:Y 0.000000
2 clock_bF$buf0_n1 0.000138
3 clock_bF$buf0_n2 0.000000
4 DFFSR_29:CLK 0.013447
5 clock_bF$buf0_n3 0.000148
6 clock_bF$buf0_n4 0.000000
7 DFFSR_11:CLK 0.013447
8 clock_bF$buf0_n5 0.000387
9 clock_bF$buf0_n6 0.000020
10 DFFSR_7:CLK 0.013447
11 clock_bF$buf0_n7 0.000122
12 clock_bF$buf0_n8 0.000306
13 clock_bF$buf0_n9 0.000143
14 DFFSR_25:CLK 0.013447
15 clock_bF$buf0_n10 0.000088
16 DFFSR_10:CLK 0.013447
17 clock_bF$buf0_n11 0.000087
18 DFFSR_28:CLK 0.013447
*RES
1 BUFX2_5:Y clock_bF$buf0_n1 2.613330
2 clock_bF$buf0_n1 clock_bF$buf0_n2 0.000000
3 clock_bF$buf0_n1 clock_bF$buf0_n3 4.106670
4 clock_bF$buf0_n3 clock_bF$buf0_n4 0.000000
5 clock_bF$buf0_n3 clock_bF$buf0_n5 5.413330
6 clock_bF$buf0_n5 clock_bF$buf0_n6 0.233333
7 clock_bF$buf0_n6 clock_bF$buf0_n7 1.400000
8 clock_bF$buf0_n7 clock_bF$buf0_n8 3.500000
9 clock_bF$buf0_n8 clock_bF$buf0_n9 1.633330
10 clock_bF$buf0_n8 clock_bF$buf0_n10 1.773330
11 clock_bF$buf0_n7 clock_bF$buf0_n11 2.426670
*END
*D_NET _56__bF$buf2 0.216096
*CONN
*I BUFX4_3:Y O
*I DFFSR_3:R I
*I DFFSR_19:R I
*I DFFSR_15:R I
*I DFFSR_21:R I
*I DFFSR_20:R I
*I DFFSR_18:R I
*CAP
1 BUFX4_3:Y 0.000000
2 _56__bF$buf2_n1 0.000102
3 _56__bF$buf2_n2 0.000115
4 DFFSR_3:R 0.035781
5 _56__bF$buf2_n3 0.000245
6 _56__bF$buf2_n4 0.000020
7 DFFSR_19:R 0.035781
8 _56__bF$buf2_n5 0.000154
9 DFFSR_15:R 0.035781
10 _56__bF$buf2_n6 0.000196
11 DFFSR_21:R 0.035781
12 _56__bF$buf2_n7 0.000298
13 _56__bF$buf2_n8 0.000020
14 DFFSR_20:R 0.035781
15 _56__bF$buf2_n9 0.000258
16 DFFSR_18:R 0.035781
*RES
1 BUFX4_3:Y _56__bF$buf2_n1 1.166670
2 _56__bF$buf2_n1 _56__bF$buf2_n2 1.866670
3 _56__bF$buf2_n2 _56__bF$buf2_n3 2.800000
4 _56__bF$buf2_n3 _56__bF$buf2_n4 0.233333
5 _56__bF$buf2_n4 _56__bF$buf2_n5 1.600000
6 _56__bF$buf2_n1 _56__bF$buf2_n6 4.433330
7 _56__bF$buf2_n6 _56__bF$buf2_n7 3.406670
8 _56__bF$buf2_n7 _56__bF$buf2_n8 0.233333
9 _56__bF$buf2_n8 _56__bF$buf2_n9 3.500000
*END
*D_NET _56__bF$buf1 0.212643
*CONN
*I BUFX4_4:Y O
*I DFFSR_4:R I
*I DFFSR_1:S I
*I DFFSR_2:R I
*I DFFSR_24:R I
*I DFFSR_27:R I
*I DFFSR_31:R I
*CAP
1 BUFX4_4:Y 0.000000
2 _56__bF$buf1_n1 0.000081
3 _56__bF$buf1_n2 0.000143
4 DFFSR_4:R 0.035781
5 _56__bF$buf1_n3 0.000101
6 _56__bF$buf1_n4 0.000102
7 DFFSR_1:S 0.032326
8 _56__bF$buf1_n5 0.000020
9 _56__bF$buf1_n6 0.000040
10 _56__bF$buf1_n7 0.000122
11 DFFSR_2:R 0.035781
12 _56__bF$buf1_n8 0.000210
13 DFFSR_24:R 0.035781
14 _56__bF$buf1_n9 0.000326
15 _56__bF$buf1_n10 0.000020
16 DFFSR_27:R 0.035781
17 _56__bF$buf1_n11 0.000245
18 DFFSR_31:R 0.035781
*RES
1 BUFX4_4:Y _56__bF$buf1_n1 1.586670
2 _56__bF$buf1_n1 _56__bF$buf1_n2 1.633330
3 _56__bF$buf1_n1 _56__bF$buf1_n3 2.800000
4 _56__bF$buf1_n3 _56__bF$buf1_n4 1.166670
5 _56__bF$buf1_n3 _56__bF$buf1_n5 0.560000
6 _56__bF$buf1_n5 _56__bF$buf1_n6 1.120000
7 _56__bF$buf1_n6 _56__bF$buf1_n7 1.400000
8 _56__bF$buf1_n6 _56__bF$buf1_n8 3.500000
9 _56__bF$buf1_n5 _56__bF$buf1_n9 3.733330
10 _56__bF$buf1_n9 _56__bF$buf1_n10 0.233333
11 _56__bF$buf1_n10 _56__bF$buf1_n11 2.800000
*END
*D_NET _56__bF$buf0 0.215873
*CONN
*I BUFX4_5:Y O
*I DFFSR_9:R I
*I DFFSR_26:R I
*I DFFSR_12:R I
*I DFFSR_32:R I
*I DFFSR_6:R I
*I DFFSR_5:R I
*CAP
1 BUFX4_5:Y 0.000000
2 _56__bF$buf0_n1 0.000078
3 _56__bF$buf0_n2 0.000054
4 _56__bF$buf0_n3 0.000020
5 DFFSR_9:R 0.035781
6 _56__bF$buf0_n4 0.000292
7 DFFSR_26:R 0.035781
8 _56__bF$buf0_n5 0.000245
9 DFFSR_12:R 0.035781
10 _56__bF$buf0_n6 0.000204
11 DFFSR_32:R 0.035781
12 _56__bF$buf0_n7 0.000204
13 DFFSR_6:R 0.035781
14 _56__bF$buf0_n8 0.000088
15 DFFSR_5:R 0.035781
*RES
1 BUFX4_5:Y _56__bF$buf0_n1 0.606667
2 _56__bF$buf0_n1 _56__bF$buf0_n2 0.840000
3 _56__bF$buf0_n2 _56__bF$buf0_n3 0.560000
4 _56__bF$buf0_n3 _56__bF$buf0_n4 3.780000
5 _56__bF$buf0_n4 _56__bF$buf0_n5 2.800000
6 _56__bF$buf0_n5 _56__bF$buf0_n6 2.333330
7 _56__bF$buf0_n2 _56__bF$buf0_n7 2.333330
8 _56__bF$buf0_n1 _56__bF$buf0_n8 1.773330
*END
*D_NET state<3> 0.226414
*CONN
*I DFFSR_4:Q O
*I INVX8_1:A I
*I AOI21X1_3:B I
*I OAI21X1_5:A I
*I NAND2X1_6:A I
*I AND2X2_2:B I
*I AOI22X1_2:A I
*CAP
1 DFFSR_4:Q 0.000000
2 state<3>_n1 0.000000
3 state<3>_n2 0.000040
4 state<3>_n3 0.000000
5 INVX8_1:A 0.109759
6 state<3>_n4 0.000196
7 state<3>_n5 0.000082
8 AOI21X1_3:B 0.026863
9 state<3>_n6 0.000203
10 OAI21X1_5:A 0.026531
11 state<3>_n7 0.000283
12 state<3>_n8 0.000020
13 NAND2X1_6:A 0.017712
14 state<3>_n9 0.000095
15 state<3>_n10 0.000041
16 AND2X2_2:B 0.017736
17 state<3>_n11 0.000291
18 AOI22X1_2:A 0.026562
*RES
1 DFFSR_4:Q state<3>_n1 0.000000
2 state<3>_n1 state<3>_n2 1.120000
3 state<3>_n2 state<3>_n3 0.000000
4 state<3>_n3 state<3>_n4 3.780000
5 state<3>_n4 state<3>_n5 0.933333
6 state<3>_n4 state<3>_n6 3.966670
7 state<3>_n1 state<3>_n7 6.533330
8 state<3>_n7 state<3>_n8 0.233333
9 state<3>_n8 state<3>_n9 1.633330
10 state<3>_n9 state<3>_n10 0.466667
11 state<3>_n9 state<3>_n11 5.086670
*END
*D_NET clock 0.068142
*CONN
*P clock O
*I BUFX2_5:A I
*I BUFX2_3:A I
*I BUFX2_4:A I
*I BUFX2_2:A I
*I BUFX2_1:A I
*CAP
1 clock 0.000000
2 clock_n1 0.000143
3 clock_n2 0.000020
4 BUFX2_5:A 0.013415
5 clock_n3 0.000245
6 clock_n4 0.000020
7 BUFX2_3:A 0.013415
8 clock_n5 0.000027
9 clock_n6 0.000033
10 BUFX2_4:A 0.013415
11 clock_n7 0.000493
12 clock_n8 0.000067
13 BUFX2_2:A 0.013415
14 clock_n9 0.000020
15 BUFX2_1:A 0.013415
*RES
1 clock clock_n1 1.633330
2 clock_n1 clock_n2 0.233333
3 clock_n2 clock_n3 2.800000
4 clock_n3 clock_n4 0.560000
5 clock_n3 clock_n5 0.746667
6 clock_n5 clock_n6 0.373333
7 clock_n5 clock_n7 3.706670
8 clock_n7 clock_n8 1.866670
9 clock_n7 clock_n9 0.560000
*END
*D_NET _97__bF$buf3 0.095288
*CONN
*I BUFX2_6:Y O
*I NAND3X1_1:B I
*I OAI21X1_7:C I
*I OAI21X1_6:C I
*I OAI21X1_30:C I
*I OAI21X1_5:C I
*CAP
1 BUFX2_6:Y 0.000000
2 _97__bF$buf3_n1 0.000143
3 _97__bF$buf3_n2 0.000224
4 NAND3X1_1:B 0.022204
5 _97__bF$buf3_n3 0.000188
6 _97__bF$buf3_n4 0.000000
7 OAI21X1_7:C 0.018010
8 _97__bF$buf3_n5 0.000034
9 _97__bF$buf3_n6 0.000034
10 _97__bF$buf3_n7 0.000000
11 OAI21X1_6:C 0.018010
12 _97__bF$buf3_n8 0.000217
13 OAI21X1_30:C 0.018010
14 _97__bF$buf3_n9 0.000204
15 OAI21X1_5:C 0.018010
*RES
1 BUFX2_6:Y _97__bF$buf3_n1 1.633330
2 _97__bF$buf3_n1 _97__bF$buf3_n2 2.566670
3 _97__bF$buf3_n1 _97__bF$buf3_n3 5.226670
4 _97__bF$buf3_n3 _97__bF$buf3_n4 0.000000
5 _97__bF$buf3_n3 _97__bF$buf3_n5 0.933333
6 _97__bF$buf3_n5 _97__bF$buf3_n6 0.933333
7 _97__bF$buf3_n6 _97__bF$buf3_n7 0.000000
8 _97__bF$buf3_n6 _97__bF$buf3_n8 2.706670
9 _97__bF$buf3_n5 _97__bF$buf3_n9 2.333330
*END
*D_NET _56_ 0.103143
*CONN
*I INVX8_2:Y O
*I BUFX4_5:A I
*I BUFX4_2:A I
*I BUFX4_4:A I
*I BUFX4_3:A I
*I BUFX4_1:A I
*CAP
1 INVX8_2:Y 0.000000
2 _56__n1 0.000257
3 _56__n2 0.000000
4 BUFX4_5:A 0.020403
5 _56__n3 0.000215
6 _56__n4 0.000060
7 BUFX4_2:A 0.020403
8 _56__n5 0.000249
9 _56__n6 0.000034
10 BUFX4_4:A 0.020403
11 _56__n7 0.000058
12 BUFX4_3:A 0.020403
13 _56__n8 0.000253
14 BUFX4_1:A 0.020403
*RES
1 INVX8_2:Y _56__n1 4.480000
2 _56__n1 _56__n2 0.000000
3 _56__n2 _56__n3 1.773330
4 _56__n3 _56__n4 1.680000
5 _56__n3 _56__n5 6.906670
6 _56__n5 _56__n6 0.933333
7 _56__n6 _56__n7 0.373333
8 _56__n5 _56__n8 3.033330
*END
*D_NET _98__bF$buf3 0.134402
*CONN
*I BUFX4_6:Y O
*I OAI21X1_1:A I
*I AOI21X1_9:A I
*I OAI21X1_11:B I
*I OAI21X1_10:B I
*I AOI21X1_8:A I
*CAP
1 BUFX4_6:Y 0.000000
2 _98__bF$buf3_n1 0.000197
3 _98__bF$buf3_n2 0.000086
4 OAI21X1_1:A 0.026531
5 _98__bF$buf3_n3 0.000000
6 AOI21X1_9:A 0.026561
7 _98__bF$buf3_n4 0.000047
8 _98__bF$buf3_n5 0.000000
9 OAI21X1_11:B 0.027070
10 _98__bF$buf3_n6 0.000115
11 OAI21X1_10:B 0.027070
12 _98__bF$buf3_n7 0.000162
13 AOI21X1_8:A 0.026561
*RES
1 BUFX4_6:Y _98__bF$buf3_n1 2.800000
2 _98__bF$buf3_n1 _98__bF$buf3_n2 0.560000
3 _98__bF$buf3_n1 _98__bF$buf3_n3 0.000000
4 _98__bF$buf3_n1 _98__bF$buf3_n4 1.306670
5 _98__bF$buf3_n4 _98__bF$buf3_n5 0.000000
6 _98__bF$buf3_n5 _98__bF$buf3_n6 0.746667
7 _98__bF$buf3_n5 _98__bF$buf3_n7 3.173330
*END
*D_NET _98__bF$buf2 0.134914
*CONN
*I BUFX4_7:Y O
*I OAI21X1_7:B I
*I AOI21X1_4:A I
*I OAI21X1_6:B I
*I OAI21X1_30:B I
*I AOI21X1_13:A I
*CAP
1 BUFX4_7:Y 0.000000
2 _98__bF$buf2_n1 0.000034
3 _98__bF$buf2_n2 0.000061
4 OAI21X1_7:B 0.027070
5 _98__bF$buf2_n3 0.000086
6 AOI21X1_4:A 0.026561
7 _98__bF$buf2_n4 0.000060
8 _98__bF$buf2_n5 0.000061
9 OAI21X1_6:B 0.027070
10 _98__bF$buf2_n6 0.000217
11 _98__bF$buf2_n7 0.000020
12 OAI21X1_30:B 0.027070
13 _98__bF$buf2_n8 0.000040
14 AOI21X1_13:A 0.026561
*RES
1 BUFX4_7:Y _98__bF$buf2_n1 0.933333
2 _98__bF$buf2_n1 _98__bF$buf2_n2 0.700000
3 _98__bF$buf2_n2 _98__bF$buf2_n3 0.560000
4 _98__bF$buf2_n1 _98__bF$buf2_n4 1.680000
5 _98__bF$buf2_n4 _98__bF$buf2_n5 0.700000
6 _98__bF$buf2_n4 _98__bF$buf2_n6 2.706670
7 _98__bF$buf2_n6 _98__bF$buf2_n7 0.233333
8 _98__bF$buf2_n7 _98__bF$buf2_n8 1.120000
*END
*D_NET _98__bF$buf1 0.134610
*CONN
*I BUFX4_8:Y O
*I AOI21X1_5:A I
*I OAI21X1_8:B I
*I OAI21X1_9:B I
*I AOI21X1_7:A I
*I AOI21X1_6:A I
*CAP
1 BUFX4_8:Y 0.000000
2 _98__bF$buf1_n1 0.000142
3 _98__bF$buf1_n2 0.000102
4 AOI21X1_5:A 0.026561
5 _98__bF$buf1_n3 0.000306
6 _98__bF$buf1_n4 0.000020
7 OAI21X1_8:B 0.027070
8 _98__bF$buf1_n5 0.000008
9 _98__bF$buf1_n6 0.000020
10 _98__bF$buf1_n7 0.000086
11 OAI21X1_9:B 0.027070
12 _98__bF$buf1_n8 0.000060
13 AOI21X1_7:A 0.026561
14 _98__bF$buf1_n9 0.000040
15 AOI21X1_6:A 0.026561
*RES
1 BUFX4_8:Y _98__bF$buf1_n1 2.613330
2 _98__bF$buf1_n1 _98__bF$buf1_n2 1.493330
3 _98__bF$buf1_n1 _98__bF$buf1_n3 3.500000
4 _98__bF$buf1_n3 _98__bF$buf1_n4 0.233333
5 _98__bF$buf1_n4 _98__bF$buf1_n5 0.233333
6 _98__bF$buf1_n5 _98__bF$buf1_n6 0.560000
7 _98__bF$buf1_n6 _98__bF$buf1_n7 0.560000
8 _98__bF$buf1_n6 _98__bF$buf1_n8 1.680000
9 _98__bF$buf1_n5 _98__bF$buf1_n9 1.120000
*END
*D_NET _117_<2> 0.137882
*CONN
*I DFFSR_18:Q O
*I OR2X2_1:B I
*I XOR2X1_1:B I
*I BUFX2_13:A I
*I OAI21X1_18:A I
*I NOR2X1_1:B I
*CAP
1 DFFSR_18:Q 0.000000
2 _117_<2>_n1 0.000115
3 OR2X2_1:B 0.022187
4 _117_<2>_n2 0.000027
5 _117_<2>_n3 0.000000
6 XOR2X1_1:B 0.052475
7 _117_<2>_n4 0.000095
8 BUFX2_13:A 0.013415
9 _117_<2>_n5 0.000155
10 OAI21X1_18:A 0.026531
11 _117_<2>_n6 0.000130
12 NOR2X1_1:B 0.022753
*RES
1 DFFSR_18:Q _117_<2>_n1 0.746667
2 _117_<2>_n1 _117_<2>_n2 0.746667
3 _117_<2>_n2 _117_<2>_n3 0.000000
4 _117_<2>_n2 _117_<2>_n4 1.960000
5 _117_<2>_n1 _117_<2>_n5 1.773330
6 _117_<2>_n5 _117_<2>_n6 0.840000
*END
*D_NET _120_<3> 0.120067
*CONN
*I DFFSR_27:Q O
*I XNOR2X1_2:A I
*I INVX1_10:A I
*I OAI21X1_8:A I
*I NOR2X1_10:A I
*I BUFX2_32:A I
*CAP
1 DFFSR_27:Q 0.000000
2 _120_<3>_n1 0.000047
3 _120_<3>_n2 0.000000
4 XNOR2X1_2:A 0.043590
5 _120_<3>_n3 0.000081
6 _120_<3>_n4 0.000041
7 INVX1_10:A 0.013409
8 _120_<3>_n5 0.000245
9 _120_<3>_n6 0.000114
10 OAI21X1_8:A 0.026531
11 _120_<3>_n7 0.000217
12 _120_<3>_n8 0.000020
13 NOR2X1_10:A 0.022237
14 _120_<3>_n9 0.000119
15 BUFX2_32:A 0.013415
*RES
1 DFFSR_27:Q _120_<3>_n1 1.306670
2 _120_<3>_n1 _120_<3>_n2 0.000000
3 _120_<3>_n2 _120_<3>_n3 2.240000
4 _120_<3>_n3 _120_<3>_n4 0.466667
5 _120_<3>_n3 _120_<3>_n5 2.800000
6 _120_<3>_n5 _120_<3>_n6 1.306670
7 _120_<3>_n5 _120_<3>_n7 3.033330
8 _120_<3>_n7 _120_<3>_n8 0.233333
9 _120_<3>_n8 _120_<3>_n9 1.073330
*END
*D_NET _120_<4> 0.129117
*CONN
*I DFFSR_28:Q O
*I BUFX2_33:A I
*I NOR2X1_9:A I
*I OAI21X1_9:A I
*I XNOR2X1_2:B I
*I INVX1_12:A I
*CAP
1 DFFSR_28:Q 0.000000
2 _120_<4>_n1 0.000264
3 BUFX2_33:A 0.013415
4 _120_<4>_n2 0.000216
5 _120_<4>_n3 0.000067
6 _120_<4>_n4 0.000000
7 NOR2X1_9:A 0.022237
8 _120_<4>_n5 0.000197
9 _120_<4>_n6 0.000020
10 OAI21X1_9:A 0.026531
11 _120_<4>_n7 0.000286
12 XNOR2X1_2:B 0.052466
13 _120_<4>_n8 0.000008
14 INVX1_12:A 0.013409
*RES
1 DFFSR_28:Q _120_<4>_n1 4.340000
2 _120_<4>_n1 _120_<4>_n2 4.340000
3 _120_<4>_n2 _120_<4>_n3 1.866670
4 _120_<4>_n3 _120_<4>_n4 0.000000
5 _120_<4>_n4 _120_<4>_n5 2.800000
6 _120_<4>_n5 _120_<4>_n6 0.233333
7 _120_<4>_n6 _120_<4>_n7 3.266670
8 _120_<4>_n2 _120_<4>_n8 0.233333
*END
*D_NET _120_<5> 0.120351
*CONN
*I DFFSR_29:Q O
*I BUFX2_34:A I
*I INVX1_14:A I
*I NOR2X1_12:A I
*I OAI21X1_10:A I
*I XNOR2X1_1:A I
*CAP
1 DFFSR_29:Q 0.000000
2 _120_<5>_n1 0.000000
3 _120_<5>_n2 0.000040
4 _120_<5>_n3 0.000082
5 BUFX2_34:A 0.013415
6 _120_<5>_n4 0.000333
7 _120_<5>_n5 0.000061
8 INVX1_14:A 0.013409
9 _120_<5>_n6 0.000058
10 NOR2X1_12:A 0.022237
11 _120_<5>_n7 0.000317
12 OAI21X1_10:A 0.026531
13 _120_<5>_n8 0.000278
14 XNOR2X1_1:A 0.043590
*RES
1 DFFSR_29:Q _120_<5>_n1 0.000000
2 _120_<5>_n1 _120_<5>_n2 1.120000
3 _120_<5>_n2 _120_<5>_n3 0.933333
4 _120_<5>_n2 _120_<5>_n4 4.573330
5 _120_<5>_n4 _120_<5>_n5 0.700000
6 _120_<5>_n5 _120_<5>_n6 0.373333
7 _120_<5>_n4 _120_<5>_n7 7.466670
8 _120_<5>_n1 _120_<5>_n8 4.060000
*END
*D_NET _41_ 0.104461
*CONN
*I NAND2X1_4:Y O
*I INVX1_21:A I
*I NAND2X1_7:B I
*I NAND3X1_3:C I
*I NAND3X1_4:A I
*I AOI21X1_10:B I
*CAP
1 NAND2X1_4:Y 0.000000
2 _41__n1 0.000135
3 _41__n2 0.000020
4 INVX1_21:A 0.013409
5 _41__n3 0.000129
6 _41__n4 0.000000
7 NAND2X1_7:B 0.018011
8 _41__n5 0.000224
9 _41__n6 0.000020
10 NAND3X1_3:C 0.022630
11 _41__n7 0.000319
12 _41__n8 0.000020
13 NAND3X1_4:A 0.022251
14 _41__n9 0.000428
15 AOI21X1_10:B 0.026863
*RES
1 NAND2X1_4:Y _41__n1 1.540000
2 _41__n1 _41__n2 0.233333
3 _41__n2 _41__n3 2.240000
4 _41__n3 _41__n4 0.000000
5 _41__n3 _41__n5 3.220000
6 _41__n5 _41__n6 0.233333
7 _41__n6 _41__n7 4.200000
8 _41__n7 _41__n8 0.233333
9 _41__n8 _41__n9 5.226670
*END
*D_NET _44_ 0.121555
*CONN
*I AND2X2_2:Y O
*I OAI21X1_15:A I
*I NAND3X1_5:B I
*I NAND2X1_11:B I
*I AOI22X1_1:B I
*I AOI21X1_11:B I
*CAP
1 AND2X2_2:Y 0.000000
2 _44__n1 0.000115
3 _44__n2 0.000102
4 OAI21X1_15:A 0.026531
5 _44__n3 0.000020
6 _44__n4 0.000142
7 NAND3X1_5:B 0.022204
8 _44__n5 0.000306
9 _44__n6 0.000020
10 NAND2X1_11:B 0.018011
11 _44__n7 0.000251
12 AOI22X1_1:B 0.026874
13 _44__n8 0.000115
14 AOI21X1_11:B 0.026863
*RES
1 AND2X2_2:Y _44__n1 2.520000
2 _44__n1 _44__n2 1.166670
3 _44__n1 _44__n3 0.560000
4 _44__n3 _44__n4 2.286670
5 _44__n3 _44__n5 3.500000
6 _44__n5 _44__n6 0.233333
7 _44__n6 _44__n7 3.640000
8 _44__n7 _44__n8 0.746667
*END
*D_NET _48_ 0.147736
*CONN
*I NAND2X1_6:Y O
*I OAI21X1_27:A I
*I NOR2X1_18:A I
*I OAI21X1_19:B I
*I OAI21X1_18:B I
*I XOR2X1_1:A I
*CAP
1 NAND2X1_6:Y 0.000000
2 _48__n1 0.000125
3 _48__n2 0.000040
4 OAI21X1_27:A 0.026531
5 _48__n3 0.000306
6 _48__n4 0.000020
7 NOR2X1_18:A 0.022237
8 _48__n5 0.000441
9 _48__n6 0.000020
10 OAI21X1_19:B 0.027070
11 _48__n7 0.000008
12 _48__n8 0.000054
13 OAI21X1_18:B 0.027070
14 _48__n9 0.000224
15 XOR2X1_1:A 0.043589
*RES
1 NAND2X1_6:Y _48__n1 2.240000
2 _48__n1 _48__n2 1.120000
3 _48__n1 _48__n3 3.500000
4 _48__n3 _48__n4 0.233333
5 _48__n4 _48__n5 5.040000
6 _48__n5 _48__n6 0.233333
7 _48__n6 _48__n7 0.233333
8 _48__n7 _48__n8 1.493330
9 _48__n7 _48__n9 3.220000
*END
*D_NET _57_ 0.122392
*CONN
*I NAND3X1_3:Y O
*I NAND2X1_9:A I
*I OAI21X1_21:B I
*I OAI21X1_23:A I
*I OAI21X1_22:B I
*I NOR2X1_19:B I
*CAP
1 NAND3X1_3:Y 0.000000
2 _57__n1 0.000034
3 _57__n2 0.000102
4 NAND2X1_9:A 0.017712
5 _57__n3 0.000054
6 _57__n4 0.000082
7 OAI21X1_21:B 0.027070
8 _57__n5 0.000400
9 _57__n6 0.000020
10 OAI21X1_23:A 0.026531
11 _57__n7 0.000041
12 _57__n8 0.000086
13 OAI21X1_22:B 0.027070
14 _57__n9 0.000437
15 NOR2X1_19:B 0.022753
*RES
1 NAND3X1_3:Y _57__n1 0.933333
2 _57__n1 _57__n2 1.166670
3 _57__n1 _57__n3 1.166670
4 _57__n3 _57__n4 0.933333
5 _57__n3 _57__n5 4.573330
6 _57__n5 _57__n6 0.233333
7 _57__n6 _57__n7 0.466667
8 _57__n7 _57__n8 0.560000
9 _57__n7 _57__n9 4.466670
*END
*D_NET N<5> 0.113072
*CONN
*P N<5> O
*I INVX1_25:A I
*I OR2X2_2:A I
*I OAI21X1_22:A I
*I OAI21X1_21:A I
*I NOR2X1_21:A I
*CAP
1 N<5> 0.000000
2 N<5>_n1 0.000013
3 N<5>_n2 0.000061
4 N<5>_n3 0.000107
5 INVX1_25:A 0.013409
6 N<5>_n4 0.000122
7 N<5>_n5 0.000115
8 OR2X2_2:A 0.022807
9 N<5>_n6 0.000115
10 OAI21X1_22:A 0.026531
11 N<5>_n7 0.000366
12 N<5>_n8 0.000020
13 OAI21X1_21:A 0.026531
14 N<5>_n9 0.000636
15 NOR2X1_21:A 0.022237
*RES
1 N<5> N<5>_n1 0.373333
2 N<5>_n1 N<5>_n2 0.700000
3 N<5>_n2 N<5>_n3 0.793333
4 N<5>_n2 N<5>_n4 1.400000
5 N<5>_n4 N<5>_n5 0.746667
6 N<5>_n4 N<5>_n6 2.520000
7 N<5>_n1 N<5>_n7 5.506670
8 N<5>_n7 N<5>_n8 0.233333
9 N<5>_n8 N<5>_n9 7.280000
*END
*D_NET _97_ 0.054711
*CONN
*I INVX4_1:Y O
*I BUFX2_9:A I
*I BUFX2_7:A I
*I BUFX2_8:A I
*I BUFX2_6:A I
*CAP
1 INVX4_1:Y 0.000000
2 _97__n1 0.000086
3 BUFX2_9:A 0.013415
4 _97__n2 0.000478
5 _97__n3 0.000102
6 BUFX2_7:A 0.013415
7 _97__n4 0.000081
8 _97__n5 0.000102
9 BUFX2_8:A 0.013415
10 _97__n6 0.000203
11 BUFX2_6:A 0.013415
*RES
1 INVX4_1:Y _97__n1 0.560000
2 _97__n1 _97__n2 6.393330
3 _97__n2 _97__n3 1.166670
4 _97__n2 _97__n4 2.240000
5 _97__n4 _97__n5 1.166670
6 _97__n4 _97__n6 3.640000
*END
*D_NET _97__bF$buf2 0.080853
*CONN
*I BUFX2_7:Y O
*I OAI21X1_1:C I
*I OAI21X1_12:C I
*I OAI21X1_13:A I
*I OAI21X1_15:C I
*CAP
1 BUFX2_7:Y 0.000000
2 _97__bF$buf2_n1 0.000049
3 _97__bF$buf2_n2 0.000027
4 OAI21X1_1:C 0.018010
5 _97__bF$buf2_n3 0.000054
6 _97__bF$buf2_n4 0.000000
7 OAI21X1_12:C 0.018010
8 _97__bF$buf2_n5 0.000034
9 _97__bF$buf2_n6 0.000061
10 OAI21X1_13:A 0.026531
11 _97__bF$buf2_n7 0.000067
12 OAI21X1_15:C 0.018010
*RES
1 BUFX2_7:Y _97__bF$buf2_n1 0.700000
2 _97__bF$buf2_n1 _97__bF$buf2_n2 0.746667
3 _97__bF$buf2_n1 _97__bF$buf2_n3 1.493330
4 _97__bF$buf2_n3 _97__bF$buf2_n4 0.000000
5 _97__bF$buf2_n3 _97__bF$buf2_n5 0.933333
6 _97__bF$buf2_n5 _97__bF$buf2_n6 0.700000
7 _97__bF$buf2_n5 _97__bF$buf2_n7 1.866670
*END
*D_NET _97__bF$buf1 0.072928
*CONN
*I BUFX2_8:Y O
*I OAI21X1_11:C I
*I OAI21X1_10:C I
*I OAI21X1_9:C I
*I OAI21X1_8:C I
*CAP
1 BUFX2_8:Y 0.000000
2 _97__bF$buf1_n1 0.000070
3 _97__bF$buf1_n2 0.000081
4 _97__bF$buf1_n3 0.000102
5 OAI21X1_11:C 0.018010
6 _97__bF$buf1_n4 0.000156
7 OAI21X1_10:C 0.018010
8 _97__bF$buf1_n5 0.000242
9 _97__bF$buf1_n6 0.000102
10 OAI21X1_9:C 0.018010
11 _97__bF$buf1_n7 0.000136
12 OAI21X1_8:C 0.018010
*RES
1 BUFX2_8:Y _97__bF$buf1_n1 0.933333
2 _97__bF$buf1_n1 _97__bF$buf1_n2 2.240000
3 _97__bF$buf1_n2 _97__bF$buf1_n3 1.166670
4 _97__bF$buf1_n2 _97__bF$buf1_n4 2.660000
5 _97__bF$buf1_n1 _97__bF$buf1_n5 6.720000
6 _97__bF$buf1_n5 _97__bF$buf1_n6 1.166670
7 _97__bF$buf1_n5 _97__bF$buf1_n7 2.100000
*END
*D_NET _97__bF$buf0 0.089516
*CONN
*I BUFX2_9:Y O
*I NAND2X1_10:A I
*I OAI21X1_20:A I
*I OAI21X1_24:C I
*I OAI21X1_25:A I
*CAP
1 BUFX2_9:Y 0.000000
2 _97__bF$buf0_n1 0.000020
3 _97__bF$buf0_n2 0.000156
4 _97__bF$buf0_n3 0.000000
5 NAND2X1_10:A 0.017712
6 _97__bF$buf0_n4 0.000156
7 OAI21X1_20:A 0.026531
8 _97__bF$buf0_n5 0.000203
9 _97__bF$buf0_n6 0.000020
10 OAI21X1_24:C 0.018010
11 _97__bF$buf0_n7 0.000176
12 OAI21X1_25:A 0.026531
*RES
1 BUFX2_9:Y _97__bF$buf0_n1 0.233333
2 _97__bF$buf0_n1 _97__bF$buf0_n2 2.333330
3 _97__bF$buf0_n2 _97__bF$buf0_n3 0.000000
4 _97__bF$buf0_n3 _97__bF$buf0_n4 2.333330
5 _97__bF$buf0_n1 _97__bF$buf0_n5 3.640000
6 _97__bF$buf0_n5 _97__bF$buf0_n6 0.233333
7 _97__bF$buf0_n6 _97__bF$buf0_n7 2.893330
*END
*D_NET _98_ 0.075566
*CONN
*I INVX8_1:Y O
*I BUFX2_10:A I
*I BUFX4_6:A I
*I BUFX4_8:A I
*I BUFX4_7:A I
*CAP
1 INVX8_1:Y 0.000000
2 _98__n1 0.000041
3 _98__n2 0.000223
4 _98__n3 0.000000
5 BUFX2_10:A 0.013415
6 _98__n4 0.000034
7 BUFX4_6:A 0.020403
8 _98__n5 0.000148
9 _98__n6 0.000169
10 BUFX4_8:A 0.020403
11 _98__n7 0.000326
12 BUFX4_7:A 0.020403
*RES
1 INVX8_1:Y _98__n1 0.466667
2 _98__n1 _98__n2 4.200000
3 _98__n2 _98__n3 0.000000
4 _98__n3 _98__n4 0.933333
5 _98__n1 _98__n5 4.106670
6 _98__n5 _98__n6 3.033330
7 _98__n5 _98__n7 3.733330
*END
*D_NET _98__bF$buf0 0.086712
*CONN
*I BUFX2_10:Y O